/batch
/config,noeldb,1     ! force off writing results to database
*get,_wallstrt,active,,time,wall
! ANSYS input file written by Workbench version 2024 R1
! File used for geometry attach: C:\Users\yy131\OneDrive\Year 3 (UCL)\MECH0020 Individual Project\FEA Simulation\fork FEA_files\dp0\SYS\DM\SYS.dsco
/title,fork FEA--Static Structural (A5)
! ****** Begin Custom Load Command Snippet ******
/COM, ACT Extensions:
/COM,     LSDYNA, 2024.1
/COM,     5f463412-bd3e-484b-87e7-cbc0a665e474, wbex
/COM,/COM,     ANSYSMotion, 2024.1
/COM,     20180725-3f81-49eb-9f31-41364844c769, wbex
/COM,
! ****** End   Custom Load Command Snippet ******
*DIM,_wb_ProjectScratch_dir,string,248
_wb_ProjectScratch_dir(1) = 'C:\Users\yy131\OneDrive\Year 3 (UCL)\MECH0020 Individual Project\FEA Simulation\_ProjectScratch\ScrFAD2\'
*DIM,_wb_SolverFiles_dir,string,248
_wb_SolverFiles_dir(1) = 'C:\Users\yy131\OneDrive\Year 3 (UCL)\MECH0020 Individual Project\FEA Simulation\fork FEA_files\dp0\SYS\MECH\'
*DIM,_wb_userfiles_dir,string,248
_wb_userfiles_dir(1) = 'C:\Users\yy131\OneDrive\Year 3 (UCL)\MECH0020 Individual Project\FEA Simulation\fork FEA_files\user_files\'
/com,--- Data in consistent MKS units. See Solving Units in the help system for more information.
/units,MKS
/nopr
/wb,file,start              !  signify a WB generated input file
/prep7
! Turn off shape checking because checks already performed inside WB mesher.
! See help system for more information.
SHPP,OFF,,NOWARN
/nolist
etcon,set             ! allow ANSYS to choose best KEYOP's for 180x elements, resets any applicable keyopt to MAPDL defaults
/com,*********** Nodes for the whole assembly ***********
nblock,3,,3484
(1i9,3e20.9e3)
        1    -1.995521280E-01    -5.114739021E-03    -3.279318537E-03
        2    -1.995521280E-01    -3.500000000E-03    -3.279318537E-03
        3    -1.995395159E-01     8.500000000E-03    -3.275201389E-03
        4    -2.128801856E-01     8.500000000E-03    -7.630176674E-03
        5    -2.039864058E-01     8.500000000E-03    -4.726859817E-03
        6    -2.084332957E-01     8.500000000E-03    -6.178518246E-03
        7    -2.128801856E-01     6.500000000E-03    -7.630176674E-03
        8    -1.995521280E-01     6.500000000E-03    -3.279318537E-03
        9    -2.084374997E-01     6.500000000E-03    -6.179890628E-03
       10    -2.039948139E-01     6.500000000E-03    -4.729604583E-03
       11    -1.995521280E-01     3.500000000E-03    -3.279318537E-03
       12    -2.128801856E-01     3.500000000E-03    -7.630176674E-03
       13    -2.039948139E-01     3.500000000E-03    -4.729604583E-03
       14    -2.084374997E-01     3.500000000E-03    -6.179890628E-03
       15    -2.128801856E-01     1.500000000E-03    -7.630176674E-03
       16    -1.995521280E-01     1.500000000E-03    -3.279318537E-03
       17    -2.084374997E-01     1.500000000E-03    -6.179890628E-03
       18    -2.039948139E-01     1.500000000E-03    -4.729604583E-03
       19    -1.995521280E-01    -1.500000000E-03    -3.279318537E-03
       20    -2.128801856E-01    -1.500000000E-03    -7.630176674E-03
! ... 3149 like lines cut
/wb,elem,start            !  set before creation of elements
/com,*********** Elements for Body 1 "SYS\Body1" ***********
et,1,187
eblock,19,solid,,1305
(19i9)
        1        1        1        1        0        0        0        0       10        0        1      554      583      579      628     2971     3095     2970     2973
     3114     3099
        1        1        1        1        0        0        0        0       10        0        2      579      628      583      595     3099     3114     3095     3096
     3142     3112
        1        1        1        1        0        0        0        0       10        0        3      554      579      568      628     2970     3031     2969     2973
     3099     3033
        1        1        1        1        0        0        0        0       10        0        4      568      579      595      628     3031     3096     3032     3033
     3099     3142
        1        1        1        1        0        0        0        0       10        0        5      495      568      595      628     2767     3032     2768     2769
     3033     3142
        1        1        1        1        0        0        0        0       10        0        6      493      628      568      495     2760     3033     2759     2755
     2769     2767
        1        1        1        1        0        0        0        0       10        0        7      495      595      497      628     2768     2775     2765     2769
     3142     2776
        1        1        1        1        0        0        0        0       10        0        8      493      497      628      495     2756     2776     2760     2755
     2765     2769
        1        1        1        1        0        0        0        0       10        0        9      499      628      583      554     2782     3114     2780     2779
     2973     2971
        1        1        1        1        0        0        0        0       10        0       10      499      595      583      628     2781     3112     2780     2782
     3142     3114
! ... 2591 like lines cut
!Material Id = {DD2B11B3-AD06-4A92-87A6-4A452B973863}
/wb,elem,end               !  done creating elements
/com,*********** Send User Defined Coordinate System(s) ***********
csys,0
toffst,273.15,  ! Temperature offset from absolute zero
/com,*********** Set Reference Temperature ***********
tref,22.
/wb,mat,start              !  starting to send materials
/com,*********** Send Materials ***********
MP,EX,1,190000000000,	! Pa
MP,NUXY,1,0.33,
MP,UVID,1,d15ed8ae-4ff2-4cc8-9ea3-e973bd9aa4a2

/wb,mat,end                !  done sending materials
!************************* Model Summary ********************
!SYS\Body1,	Stainless Steel (fork),	matid,	1
!************************* End Model Summary ********************
! get the diagonal of the bounding box. Needed later for other things
*get,_xmin,node,,mnloc,x
*get,_ymin,node,,mnloc,y
*get,_zmin,node,,mnloc,z
*get,_xmax,node,,mxloc,x
*get,_ymax,node,,mxloc,y
*get,_zmax,node,,mxloc,z
_ASMDIAG=(_xmax-_xmin)*(_xmax-_xmin)+(_ymax-_ymin)*(_ymax-_ymin)+(_zmax-_zmin)*(_zmax-_zmin)
_ASMDIAG=SQRT(_ASMDIAG)
/wb,contact,start          !  starting to send contact
/wb,contact,end            !  done creating contacts
/golist
/wb,load,start             !  starting to send loads
/com,*********** Fixed Supports ***********
CMBLOCK,_FIXEDSU,NODE,        9
(8i10)
       493       495       497       499      2755      2756      2757      2765
      2774
cmsel,s,_FIXEDSU
d,all,all
nsel,all
/com,*********** Define Force Using Surface Effect Elements ***********
local,12,0,0.,0.,0.,0.,0.,0.
csys,0
et,2,154
mat,2
eblock,10,,,28
(15i9)
     2510        2        2        2       12        4        9        6        6      656      671        6      654
     2511        2        2        2       12        2       19       21       21      639      738       21      640
     2512        2        2        2       12       12      514       15       15      706      725       15      702
     2513        2        2        2       12        5        6       10       10      664      672       10      666
     2514        2        2        2       12        2       21       25       25      640      757       25      641
     2515        2        2        2       12       12       15       14       14      702      715       14      701
     2516        2        2        2       12       13       17       18       18      709      733       18      710
     2517        2        2        2       12        6        9       10       10      671      688       10      672
     2518        2        2        2       12        4      516        7        7      661      680        7      655
     2519        2        2        2       12       11       13       16       16      693      708       16      694
     2520        2        2        2       12       13       14       17       17      707      716       17      709
     2521        2        2        2       12        5       10        8        8      666      682        8      665
     2522        2        2        2       12       20       23       22       22      747      762       22      746
     2523        2        2        2       12       23       24       22       22      768      763       22      762
     2524        2        2        2       12       20      511       23       23      752      771       23      747
     2525        2        2        2       12       14       15       17       17      715      721       17      716
     2526        2        2        2       12       16       13       18       18      708      710       18      727
     2527        2        2        2       12       21       24       25       25      756      773       25      757
     2528        2        2        2       12        3        5        8        8      647      665        8      648
     2529        2        2        2       12        4        7        9        9      655      677        9      656
! ... 9 like lines cut
esel,s,type,,2
keyop,2,2,1                ! Apply load in local coordinate system
keyop,2,7,1                ! Use original area so load is constant in large deformation
esel,all
/gst,on,on
fini
*get,_numnode,node,0,count
*get,_numelem,elem,0,count
*get, _MAXELEMNUM, elem, 0, NUM, MAX
*get, _MAXNODENUM, node, 0, NUM, MAX
*get, _MAXELEMTYPE, etyp, 0, NUM, MAX
*get, _MAXREALCONST, rcon, 0, NUM, MAX
/go
/wb,load,end               !  done creating loads
/com,--- Number of total nodes = %_numnode%
/com,--- Number of contact elements = 28
/com,--- Number of spring elements = 0
/com,--- Number of bearing elements = 0
/com,--- Number of solid elements = 1305
/com,--- Number of condensed parts = 0
/com,--- Number of total elements = %_numelem%
*get,_wallbsol,active,,time,wall
/com,****************************************************************************
/com,*************************    SOLUTION       ********************************
/com,****************************************************************************
/solu
antype,0                   ! static analysis
_thickRatio=  0     ! Ratio of thick parts in the model
eqsl,sparse,,,,,1
cntr,print,1               ! print out contact info and also make no initial contact an error
cncheck,dmp		!	Enable program controlled contact splitting for distributed memory parallel run
dmpoption,emat,no             ! Don't combine emat file for DANSYS
dmpoption,esav,no             ! Don't combine esav file for DANSYS
nldiag,cont,iter           ! print out contact info each equilibrium iteration
rescontrol,,none                 ! Do not keep any restart files
/com,****************************************************
/com,******************* SOLVE FOR LS 1 OF 1 ****************
esel,s,type,,2
nsle
sfe,all,1,pres,1,0.
sfe,all,2,pres,1,0.
sfe,all,3,pres,1,-32522.7122001314
nsel,all
esel,all
/nopr
/gopr
nsub,1,1,1
time,1.
outres,erase
outres,all,none
outres,nsol,all,
outres,rsol,all
outres,eangl,all
outres,etmp,all
outres,veng,all
outres,strs,all,
outres,epel,all,
outres,eppl,all,
outres,cont,all,
! *********** WB SOLVE COMMAND ***********
! check interactive state
*get,ANSINTER_,active,,int
*if,ANSINTER_,ne,0,then
/eof
*endif
solve
/com *************** Write FE CONNECTORS ********* 
CEWRITE,file,ce,,INTE
/com,****************************************************
/com,*************** FINISHED SOLVE FOR LS 1 *************
*get,_wallasol,active,,time,wall
/nopr
*get,_numnode,node,0,count
*get,_numelem,elem,0,count
*get, _MAXELEMNUM, elem, 0, NUM, MAX
*get, _MAXNODENUM, node, 0, NUM, MAX,,,INTERNAL
*get, _MAXELEMTYPE, etyp, 0, NUM, MAX
*get, _MAXREALCONST, rcon, 0, NUM, MAX
*get,_NSOLTHREADS,active,0,ntfs
*get,_NSOLPROCESSES,active,0,npfs
/gopr
/post1
xmlo,ENCODING,ISO-8859-1
xmlo,parm
/xml,parm,xml
fini
/gopr
*get,_walldone,active,,time,wall
_preptime=(_wallbsol-_wallstrt)*3600
_solvtime=(_wallasol-_wallbsol)*3600
_posttime=(_walldone-_wallasol)*3600
_totaltim=(_walldone-_wallstrt)*3600
*get,_dlbratio,active,0,solu,dlbr
*get,_combtime,active,0,solu,comb
*get,_ssmode,active,0,solu,ssmm
*get,_ndofs,active,0,solu,ndof
*get,_sol_end_time,active,0,set,time
*if,_sol_end_time,eq,1.000000,then
/fclean				!clean distributed files
*endif
/com,--- Total number of nodes = %_numnode%
/com,--- Total number of elements = %_numelem%
/com,--- Element load balance ratio = %_dlbratio%
/com,--- Time to combine distributed files = %_combtime%
/com,--- Sparse memory mode = %_ssmode%
/com,--- Number of DOF = %_ndofs%
/wb,file,end               ! done with WB generated input
