/batch
/config,noeldb,1     ! force off writing results to database
*get,_wallstrt,active,,time,wall
! ANSYS input file written by Workbench version 2024 R1
! File used for geometry attach: C:\Users\yy131\OneDrive\Year 3 (UCL)\MECH0020 Individual Project\FEA Simulation\fork FEA_files\dp0\SYS-1\DM\SYS-1.scdoc
/title,fork FEA--Static Structural (B5)
! ****** Begin Custom Load Command Snippet ******
/COM, ACT Extensions:
/COM,     LSDYNA, 2024.1
/COM,     5f463412-bd3e-484b-87e7-cbc0a665e474, wbex
/COM,/COM,     ANSYSMotion, 2024.1
/COM,     20180725-3f81-49eb-9f31-41364844c769, wbex
/COM,
! ****** End   Custom Load Command Snippet ******
*DIM,_wb_ProjectScratch_dir,string,248
_wb_ProjectScratch_dir(1) = 'C:\Users\yy131\OneDrive\Year 3 (UCL)\MECH0020 Individual Project\FEA Simulation\_ProjectScratch\Scr3099\'
*DIM,_wb_SolverFiles_dir,string,248
_wb_SolverFiles_dir(1) = 'C:\Users\yy131\OneDrive\Year 3 (UCL)\MECH0020 Individual Project\FEA Simulation\fork FEA_files\dp0\SYS-1\MECH\'
*DIM,_wb_userfiles_dir,string,248
_wb_userfiles_dir(1) = 'C:\Users\yy131\OneDrive\Year 3 (UCL)\MECH0020 Individual Project\FEA Simulation\fork FEA_files\user_files\'
/com,--- Data in consistent MKS units. See Solving Units in the help system for more information.
/units,MKS
/nopr
/wb,file,start              !  signify a WB generated input file
/prep7
! Turn off shape checking because checks already performed inside WB mesher.
! See help system for more information.
SHPP,OFF,,NOWARN
/nolist
etcon,set             ! allow ANSYS to choose best KEYOP's for 180x elements, resets any applicable keyopt to MAPDL defaults
/com,*********** Nodes for the whole assembly ***********
nblock,3,,2201
(1i9,3e20.9e3)
        1    -1.770000000E-01     1.060651591E-03     5.000000000E-03
        2    -1.850000000E-01     1.060651591E-03     5.000000000E-03
        3    -1.770000000E-01     3.500000000E-03     5.000000000E-03
        4    -1.750000000E-01     5.500000000E-03     5.000000000E-03
        5    -1.764142136E-01     4.914213562E-03     5.000000000E-03
        6    -9.900000000E-02     5.500000000E-03     5.000000000E-03
        7    -1.641428571E-01     5.500000000E-03     5.000000000E-03
        8    -1.532857143E-01     5.500000000E-03     5.000000000E-03
        9    -1.424285714E-01     5.500000000E-03     5.000000000E-03
       10    -1.315714286E-01     5.500000000E-03     5.000000000E-03
       11    -1.207142857E-01     5.500000000E-03     5.000000000E-03
       12    -1.098571429E-01     5.500000000E-03     5.000000000E-03
       13    -9.700000000E-02     3.500000000E-03     5.000000000E-03
       14    -9.758578644E-02     4.914213562E-03     5.000000000E-03
       15    -9.700000000E-02     1.060651591E-03     5.000000000E-03
       16    -9.000000000E-02     1.060651591E-03     5.000000000E-03
       17    -9.000000000E-02     7.500000000E-03     5.000000000E-03
       18    -1.790000000E-01     7.500000000E-03     5.000000000E-03
       19    -1.678750000E-01     7.500000000E-03     5.000000000E-03
       20    -1.567500000E-01     7.500000000E-03     5.000000000E-03
! ... 1982 like lines cut
/wb,elem,start            !  set before creation of elements
/com,*********** Elements for Body 1 "SYS-1\Body1" ***********
et,1,187
eblock,19,solid,,793
(19i9)
        1        1        1        1        0        0        0        0       10        0        1      138      152      153      403     1132     1244     1133     1136
     1248     1253
        1        1        1        1        0        0        0        0       10        0        2      152      403      371      153     1248     1961     1247     1244
     1253     1251
        1        1        1        1        0        0        0        0       10        0        3      138      403      153      393     1136     1253     1133     1135
     1995     1252
        1        1        1        1        0        0        0        0       10        0        4      152      403      363      371     1248     1940     1246     1247
     1961     1939
        1        1        1        1        0        0        0        0       10        0        5      136      403      363      152     1126     1940     1125     1121
     1248     1246
        1        1        1        1        0        0        0        0       10        0        6      136      403      152      138     1126     1248     1121     1120
     1136     1132
        1        1        1        1        0        0        0        0       10        0        7      322      371      403      393     1817     1961     1819     1818
     1960     1995
        1        1        1        1        0        0        0        0       10        0        8      138      322      403      393     1134     1819     1136     1135
     1818     1995
        1        1        1        1        0        0        0        0       10        0        9      322      363      403      371     1815     1940     1819     1817
     1939     1961
        1        1        1        1        0        0        0        0       10        0       10      136      322      403      138     1123     1819     1126     1120
     1134     1136
! ... 1567 like lines cut
!Material Id = {FD47C06B-FBFC-4A29-B5DB-E4340C0A94F4}
/wb,elem,end               !  done creating elements
/com,*********** Send User Defined Coordinate System(s) ***********
csys,0
toffst,273.15,  ! Temperature offset from absolute zero
/com,*********** Set Reference Temperature ***********
tref,22.
/wb,mat,start              !  starting to send materials
/com,*********** Send Materials ***********
MP,EX,1,190000000000,	! Pa
MP,NUXY,1,0.3,
MP,UVID,1,44bf2d83-1b65-4cc0-87bd-740b3aef9281

/wb,mat,end                !  done sending materials
!************************* Model Summary ********************
!SYS-1\Body1,	Stainless Steel,	matid,	1
!************************* End Model Summary ********************
! get the diagonal of the bounding box. Needed later for other things
*get,_xmin,node,,mnloc,x
*get,_ymin,node,,mnloc,y
*get,_zmin,node,,mnloc,z
*get,_xmax,node,,mxloc,x
*get,_ymax,node,,mxloc,y
*get,_zmax,node,,mxloc,z
_ASMDIAG=(_xmax-_xmin)*(_xmax-_xmin)+(_ymax-_ymin)*(_ymax-_ymin)+(_zmax-_zmin)*(_zmax-_zmin)
_ASMDIAG=SQRT(_ASMDIAG)
/wb,contact,start          !  starting to send contact
/wb,contact,end            !  done creating contacts
/golist
/wb,load,start             !  starting to send loads
/com,*********** Fixed Supports ***********
CMBLOCK,_FIXEDSU,NODE,      179
(8i10)
        16        17        31        32        33        34        35        36
        37        38        39        40        41        42        43        44
        45        46        47        54        74        75        76        77
        78        79        80        81        82        83        84        85
        86        87        88        89        90        91        94        95
        96        97        98        99       100       101       102       103
       228       229       230       232       233       234       235       236
       237       510       511       512       521       522       596       597
       600       602       603       604       605       606       609       610
       611       612       614       615       616       621       622       623
       624       625       630       631       632       633       634       640
       641       642       643       644       649       650       651       652
       653       658       659       660       661       666       667       671
       672       679       684       689       694       699       753       854
       855       858       863       864       865       866       867       868
       869       870       871       872       873       874       875       876
       877       878       879       880       881       882       883       884
       885       886       887       888       889       890       891       892
       893       894       895       896       897       898       899       900
       903       907       908       909       910       911       912       913
       914       915       926       929       930       938       943       945
       948       951       954      1569      1571      1572      1578      1579
      1580      1581      1582
cmsel,s,_FIXEDSU
d,all,all
nsel,all
/com,*********** Define Force Using Surface Effect Elements ***********
local,12,0,0.,0.,0.,0.,0.,0.
csys,0
et,2,154
mat,2
eblock,10,,,31
(15i9)
     1584        2        2        2       12      128      135      167      167     1082     1115      167     1083
     1585        2        2        2       12      128      130      135      135     1081     1097      135     1082
     1586        2        2        2       12      131      129      132      132     1090     1091      132     1101
     1587        2        2        2       12      129      131      135      135     1090     1102      135     1093
     1588        2        2        2       12      132      129      134      134     1091     1092      134     1109
     1589        2        2        2       12      132      134      133      133     1109     1112      133     1108
     1590        2        2        2       12      129      135      130      130     1093     1097      130     1089
     1591        2        2        2       12      125      127      121      121     1074     1054      121     1052
     1592        2        2        2       12      121      126      125      125     1053     1073      125     1052
     1593        2        2        2       12      121      127      120      120     1054     1044      120     1042
     1594        2        2        2       12      119      166      126      126     1036     1077      126     1032
     1595        2        2        2       12      119      126      121      121     1032     1053      121     1030
     1596        2        2        2       12      104      106      111      111      959      975      111      960
     1597        2        2        2       12      108      110      109      109      988      991      109      987
     1598        2        2        2       12      106      105      111      111      967      971      111      975
     1599        2        2        2       12      107      105      108      108      968      969      108      980
     1600        2        2        2       12      104      147      106      106      962      976      106      959
     1601        2        2        2       12      111      105      107      107      971      968      107      981
     1602        2        2        2       12      108      105      110      110      969      970      110      988
     1603        2        2        2       12      121      122      124      124     1049     1063      124     1051
! ... 12 like lines cut
esel,s,type,,2
keyop,2,2,1                ! Apply load in local coordinate system
keyop,2,7,1                ! Use original area so load is constant in large deformation
esel,all
/gst,on,on
fini
*get,_numnode,node,0,count
*get,_numelem,elem,0,count
*get, _MAXELEMNUM, elem, 0, NUM, MAX
*get, _MAXNODENUM, node, 0, NUM, MAX
*get, _MAXELEMTYPE, etyp, 0, NUM, MAX
*get, _MAXREALCONST, rcon, 0, NUM, MAX
/go
/wb,load,end               !  done creating loads
/com,--- Number of total nodes = %_numnode%
/com,--- Number of contact elements = 31
/com,--- Number of spring elements = 0
/com,--- Number of bearing elements = 0
/com,--- Number of solid elements = 793
/com,--- Number of condensed parts = 0
/com,--- Number of total elements = %_numelem%
*get,_wallbsol,active,,time,wall
/com,****************************************************************************
/com,*************************    SOLUTION       ********************************
/com,****************************************************************************
/solu
antype,0                   ! static analysis
_thickRatio=  0     ! Ratio of thick parts in the model
eqsl,sparse,,,,,1
cntr,print,1               ! print out contact info and also make no initial contact an error
cncheck,dmp		!	Enable program controlled contact splitting for distributed memory parallel run
dmpoption,emat,no             ! Don't combine emat file for DANSYS
dmpoption,esav,no             ! Don't combine esav file for DANSYS
nldiag,cont,iter           ! print out contact info each equilibrium iteration
rescontrol,,none                 ! Do not keep any restart files
/com,****************************************************
/com,******************* SOLVE FOR LS 1 OF 1 ****************
esel,s,type,,2
nsle
sfe,all,1,pres,1,9986.69816816243
sfe,all,2,pres,1,0.
sfe,all,3,pres,1,-30754.2989273361
nsel,all
esel,all
/nopr
/gopr
nsub,1,1,1
time,1.
outres,erase
outres,all,none
outres,nsol,all,
outres,rsol,all
outres,eangl,all
outres,etmp,all
outres,veng,all
outres,strs,all,
outres,epel,all,
outres,eppl,all,
outres,cont,all,
! *********** WB SOLVE COMMAND ***********
! check interactive state
*get,ANSINTER_,active,,int
*if,ANSINTER_,ne,0,then
/eof
*endif
solve
/com *************** Write FE CONNECTORS ********* 
CEWRITE,file,ce,,INTE
/com,****************************************************
/com,*************** FINISHED SOLVE FOR LS 1 *************
*get,_wallasol,active,,time,wall
/nopr
*get,_numnode,node,0,count
*get,_numelem,elem,0,count
*get, _MAXELEMNUM, elem, 0, NUM, MAX
*get, _MAXNODENUM, node, 0, NUM, MAX,,,INTERNAL
*get, _MAXELEMTYPE, etyp, 0, NUM, MAX
*get, _MAXREALCONST, rcon, 0, NUM, MAX
*get,_NSOLTHREADS,active,0,ntfs
*get,_NSOLPROCESSES,active,0,npfs
/gopr
/post1
xmlo,ENCODING,ISO-8859-1
xmlo,parm
/xml,parm,xml
fini
/gopr
*get,_walldone,active,,time,wall
_preptime=(_wallbsol-_wallstrt)*3600
_solvtime=(_wallasol-_wallbsol)*3600
_posttime=(_walldone-_wallasol)*3600
_totaltim=(_walldone-_wallstrt)*3600
*get,_dlbratio,active,0,solu,dlbr
*get,_combtime,active,0,solu,comb
*get,_ssmode,active,0,solu,ssmm
*get,_ndofs,active,0,solu,ndof
*get,_sol_end_time,active,0,set,time
*if,_sol_end_time,eq,1.000000,then
/fclean				!clean distributed files
*endif
/com,--- Total number of nodes = %_numnode%
/com,--- Total number of elements = %_numelem%
/com,--- Element load balance ratio = %_dlbratio%
/com,--- Time to combine distributed files = %_combtime%
/com,--- Sparse memory mode = %_ssmode%
/com,--- Number of DOF = %_ndofs%
/wb,file,end               ! done with WB generated input
