/batch
/config,noeldb,1     ! force off writing results to database
*get,_wallstrt,active,,time,wall
! ANSYS input file written by Workbench version 2024 R1
! File used for geometry attach: C:\Users\yy131\Downloads\3D printing\4.24\butterfly fork v39.iges
/title,fork FEA--Static Structural (C5)
! ****** Begin Custom Load Command Snippet ******
/COM, ACT Extensions:
/COM,     LSDYNA, 2024.1
/COM,     5f463412-bd3e-484b-87e7-cbc0a665e474, wbex
/COM,/COM,     ANSYSMotion, 2024.1
/COM,     20180725-3f81-49eb-9f31-41364844c769, wbex
/COM,
! ****** End   Custom Load Command Snippet ******
*DIM,_wb_ProjectScratch_dir,string,248
_wb_ProjectScratch_dir(1) = 'C:\Users\yy131\OneDrive\Year 3 (UCL)\MECH0020 Individual Project\FEA Simulation\_ProjectScratch\ScrE467\'
*DIM,_wb_SolverFiles_dir,string,248
_wb_SolverFiles_dir(1) = 'C:\Users\yy131\OneDrive\Year 3 (UCL)\MECH0020 Individual Project\FEA Simulation\fork FEA_files\dp0\SYS-2\MECH\'
*DIM,_wb_userfiles_dir,string,248
_wb_userfiles_dir(1) = 'C:\Users\yy131\OneDrive\Year 3 (UCL)\MECH0020 Individual Project\FEA Simulation\fork FEA_files\user_files\'
/com,--- Data in consistent MKS units. See Solving Units in the help system for more information.
/units,MKS
/nopr
/wb,file,start              !  signify a WB generated input file
/prep7
! Turn off shape checking because checks already performed inside WB mesher.
! See help system for more information.
SHPP,OFF,,NOWARN
/nolist
etcon,set             ! allow ANSYS to choose best KEYOP's for 180x elements, resets any applicable keyopt to MAPDL defaults
/com,*********** Nodes for the whole assembly ***********
nblock,3,,17941
(1i9,3e20.9e3)
        1     1.122500000E-01    -3.514650336E-34    -1.199999996E-02
        2     1.122500000E-01     3.000000000E-03    -1.199999996E-02
        3     1.122500000E-01     1.000000000E-03    -1.199999996E-02
        4     1.122500000E-01     2.000000000E-03    -1.199999996E-02
        5     1.122500000E-01     0.000000000E+00    -3.000000045E-03
        6     1.122500000E-01    -3.124133632E-34    -1.099999997E-02
        7     1.122500000E-01    -2.733616928E-34    -9.999999975E-03
        8     1.122500000E-01    -2.343100224E-34    -8.999999985E-03
        9     1.122500000E-01    -1.952583520E-34    -7.999999995E-03
       10     1.122500000E-01    -1.562066816E-34    -7.000000005E-03
       11     1.122500000E-01    -1.171550112E-34    -6.000000015E-03
       12     1.122500000E-01    -7.810334080E-35    -5.000000025E-03
       13     1.122500000E-01    -3.905167040E-35    -4.000000035E-03
       14     1.122500000E-01     3.000000000E-03    -3.000000045E-03
       15     1.122500000E-01     1.000000000E-03    -3.000000045E-03
       16     1.122500000E-01     2.000000000E-03    -3.000000045E-03
       17     1.122500000E-01     3.000000000E-03    -4.000000035E-03
       18     1.122500000E-01     3.000000000E-03    -5.000000025E-03
       19     1.122500000E-01     3.000000000E-03    -6.000000015E-03
       20     1.122500000E-01     3.000000000E-03    -7.000000005E-03
! ... 16291 like lines cut
/wb,elem,start            !  set before creation of elements
/com,*********** Elements for Body 1 "Fork" ***********
et,1,187
eblock,19,solid,,7667
(19i9)
        1        1        1        1        0        0        0        0       10        0        1     2069     2991     2698     2968    13059    15875    13056    13058
    16310    15874
        1        1        1        1        0        0        0        0       10        0        2     1985     2698     2991     2968    12552    15875    12555    12554
    15874    16310
        1        1        1        1        0        0        0        0       10        0        3     1981     1985     2991     2968    12527    12555    12533    12532
    12554    16310
        1        1        1        1        0        0        0        0       10        0        4     1981     2991     2684     2968    12533    15834    12531    12532
    16310    15833
        1        1        1        1        0        0        0        0       10        0        5     1985     2991     2698     2943    12555    15875    12552    12553
    16306    15873
        1        1        1        1        0        0        0        0       10        0        6     2069     2698     2991     2943    13056    15875    13059    13057
    15873    16306
        1        1        1        1        0        0        0        0       10        0        7     2069     2684     2991     2968    13055    15834    13059    13058
    15833    16310
        1        1        1        1        0        0        0        0       10        0        8     2029     2991     2041     2696    12741    12851    12733    12739
    15866    12849
        1        1        1        1        0        0        0        0       10        0        9     2029     2069     2041     2991    12734    12843    12733    12741
    13059    12851
        1        1        1        1        0        0        0        0       10        0       10     1981     2991     1988     2684    12533    12575    12528    12531
    15834    12572
! ... 15315 like lines cut
!Material Id = {0B13208A-9ED0-405F-90C1-DDEBD79F6628}
/wb,elem,end               !  done creating elements
/com,*********** Send User Defined Coordinate System(s) ***********
csys,0
toffst,273.15,  ! Temperature offset from absolute zero
/com,*********** Set Reference Temperature ***********
tref,22.
/wb,mat,start              !  starting to send materials
/com,*********** Send Materials ***********
MP,DENS,1,7850,	! kg m^-3
MP,ALPX,1,1.2e-05,	! C^-1
MP,C,1,434,	! J kg^-1 C^-1
MP,KXX,1,60.5,	! W m^-1 C^-1
MP,RSVX,1,1.7e-07,	! kg m^3 A^-2 s^-3
MP,EX,1,200000000000,	! Pa
MP,NUXY,1,0.3,
MP,MURX,1,10000,
MP,UVID,1,413f42b1-c9d1-4880-adae-a93145e6f88f
MP,UMID,1,59002a79-71c2-428e-906b-55d7dbee100e

/wb,mat,end                !  done sending materials
!************************* Model Summary ********************
!Fork,	Structural Steel 6,	matid,	1
!************************* End Model Summary ********************
! get the diagonal of the bounding box. Needed later for other things
*get,_xmin,node,,mnloc,x
*get,_ymin,node,,mnloc,y
*get,_zmin,node,,mnloc,z
*get,_xmax,node,,mxloc,x
*get,_ymax,node,,mxloc,y
*get,_zmax,node,,mxloc,z
_ASMDIAG=(_xmax-_xmin)*(_xmax-_xmin)+(_ymax-_ymin)*(_ymax-_ymin)+(_zmax-_zmin)*(_zmax-_zmin)
_ASMDIAG=SQRT(_ASMDIAG)
/wb,contact,start          !  starting to send contact
/wb,contact,end            !  done creating contacts
/golist
/wb,load,start             !  starting to send loads
/com,*********** Fixed Supports ***********
CMBLOCK,_FIXEDSU,NODE,     1726
(8i10)
         1         2         5         6         7         8         9        10
        11        12        13        14        17        18        19        20
        21        22        23        24        25        26        29        30
        31        32        33        34        35        36        37        38
        39        40        43        44        45        46        47        48
        49        50        51        52        53        54        55        56
        57        58        59        60        61        62        63        64
        65        66        67        68        69        70        71        72
        73        74        75        76        77        78        79        80
        81        82        83        84        85        86        87        88
        89        90        91        92        93        94        95        96
        97        98        99       100       101       102       103       104
       105       106       107       108       109       110       111       112
       113       114       115       116       117       118       119       120
       121       122       123       124       125       126       127       128
       129       130       131       132       133       134       135       136
       137       138       139       140       141       142       143       144
       145       146       147       148       149       150       151       152
       153       154       155       156       157       158       159       160
       161       162       163       164       165       166       167       168
! ... 196 like lines cut
cmsel,s,_FIXEDSU
d,all,all
nsel,all
/com,*********** Define Force Using Surface Effect Elements ***********
local,12,0,0.,0.,0.,0.,0.,0.
csys,0
et,2,154
mat,2
eblock,10,,,136
(15i9)
    12980        2        2        2       12     1149     1176     1175     1175     8863     9005     1175     8862
    12981        2        2        2       12     1177     1163     1162     1162     8951     8943     1162     8944
    12982        2        2        2       12     1148     1176     1149     1149     8856     8863     1149     8855
    12983        2        2        2       12     1151     1174     1173     1173     8876     8996     1173     8875
    12984        2        2        2       12     1152     1173     1172     1172     8884     8992     1172     8883
    12985        2        2        2       12     1147     1163     1177     1177     8850     8951     1177     8851
    12986        2        2        2       12     1154     1170     1169     1169     8896     8978     1169     8895
    12987        2        2        2       12     1146     1163     1147     1147     8843     8850     1147     8842
    12988        2        2        2       12     1147     1177     1148     1148     8851     8857     1148     8849
    12989        2        2        2       12     1148     1177     1176     1176     8857     9010     1176     8856
    12990        2        2        2       12     1149     1175     1150     1150     8862     8870     1150     8861
    12991        2        2        2       12     1150     1175     1174     1174     8870     9001     1174     8869
    12992        2        2        2       12     1154     1169     1155     1155     8895     8903     1155     8894
    12993        2        2        2       12     1150     1174     1151     1151     8869     8876     1151     8868
    12994        2        2        2       12     1151     1173     1152     1152     8875     8884     1152     8874
    12995        2        2        2       12     1152     1172     1153     1153     8883     8889     1153     8882
    12996        2        2        2       12     1153     1172     1171     1171     8889     8987     1171     8888
    12997        2        2        2       12     1153     1171     1154     1154     8888     8897     1154     8887
    12998        2        2        2       12     1154     1171     1170     1170     8897     8983     1170     8896
    12999        2        2        2       12      857      859     1164     1164     7310     7332     1164     7313
! ... 117 like lines cut
esel,s,type,,2
keyop,2,2,1                ! Apply load in local coordinate system
keyop,2,7,1                ! Use original area so load is constant in large deformation
esel,all
/gst,on,on
fini
*get,_numnode,node,0,count
*get,_numelem,elem,0,count
*get, _MAXELEMNUM, elem, 0, NUM, MAX
*get, _MAXNODENUM, node, 0, NUM, MAX
*get, _MAXELEMTYPE, etyp, 0, NUM, MAX
*get, _MAXREALCONST, rcon, 0, NUM, MAX
/go
/wb,load,end               !  done creating loads
/com,--- Number of total nodes = %_numnode%
/com,--- Number of contact elements = 136
/com,--- Number of spring elements = 0
/com,--- Number of bearing elements = 0
/com,--- Number of solid elements = 7667
/com,--- Number of condensed parts = 0
/com,--- Number of total elements = %_numelem%
*get,_wallbsol,active,,time,wall
/com,****************************************************************************
/com,*************************    SOLUTION       ********************************
/com,****************************************************************************
/solu
antype,0                   ! static analysis
_thickRatio=  0     ! Ratio of thick parts in the model
eqsl,sparse,,,,,1
cntr,print,1               ! print out contact info and also make no initial contact an error
cncheck,dmp		!	Enable program controlled contact splitting for distributed memory parallel run
dmpoption,emat,no             ! Don't combine emat file for DANSYS
dmpoption,esav,no             ! Don't combine esav file for DANSYS
nldiag,cont,iter           ! print out contact info each equilibrium iteration
rescontrol,,none                 ! Do not keep any restart files
/com,****************************************************
/com,******************* SOLVE FOR LS 1 OF 1 ****************
esel,s,type,,2
nsle
sfe,all,1,pres,1,0.
sfe,all,2,pres,1,-29816.1113221846
sfe,all,3,pres,1,0.
nsel,all
esel,all
/nopr
/gopr
nsub,1,1,1
time,1.
outres,erase
outres,all,none
outres,nsol,all,
outres,rsol,all
outres,eangl,all
outres,etmp,all
outres,veng,all
outres,strs,all,
outres,epel,all,
outres,eppl,all,
outres,cont,all,
! *********** WB SOLVE COMMAND ***********
! check interactive state
*get,ANSINTER_,active,,int
*if,ANSINTER_,ne,0,then
/eof
*endif
solve
/com *************** Write FE CONNECTORS ********* 
CEWRITE,file,ce,,INTE
/com,****************************************************
/com,*************** FINISHED SOLVE FOR LS 1 *************
*get,_wallasol,active,,time,wall
/nopr
*get,_numnode,node,0,count
*get,_numelem,elem,0,count
*get, _MAXELEMNUM, elem, 0, NUM, MAX
*get, _MAXNODENUM, node, 0, NUM, MAX,,,INTERNAL
*get, _MAXELEMTYPE, etyp, 0, NUM, MAX
*get, _MAXREALCONST, rcon, 0, NUM, MAX
*get,_NSOLTHREADS,active,0,ntfs
*get,_NSOLPROCESSES,active,0,npfs
/gopr
/post1
xmlo,ENCODING,ISO-8859-1
xmlo,parm
/xml,parm,xml
fini
/gopr
*get,_walldone,active,,time,wall
_preptime=(_wallbsol-_wallstrt)*3600
_solvtime=(_wallasol-_wallbsol)*3600
_posttime=(_walldone-_wallasol)*3600
_totaltim=(_walldone-_wallstrt)*3600
*get,_dlbratio,active,0,solu,dlbr
*get,_combtime,active,0,solu,comb
*get,_ssmode,active,0,solu,ssmm
*get,_ndofs,active,0,solu,ndof
*get,_sol_end_time,active,0,set,time
*if,_sol_end_time,eq,1.000000,then
/fclean				!clean distributed files
*endif
/com,--- Total number of nodes = %_numnode%
/com,--- Total number of elements = %_numelem%
/com,--- Element load balance ratio = %_dlbratio%
/com,--- Time to combine distributed files = %_combtime%
/com,--- Sparse memory mode = %_ssmode%
/com,--- Number of DOF = %_ndofs%
/wb,file,end               ! done with WB generated input
